76
ottqagegl 739821
fakltva 527597
rvjvespdyd 68866
khmwkx 207885
why 399064
c 848865
ixb 329290
bses 927069
gvbpjfnay 170634
z 141430
qncfutlk 422610
xgu 664402
ok 840882
ictrra 35290
gnxkzygysh 864026
te 749694
kaprn 439314
nn 599689
nesiioi 725681
wbkjabxu 337103
vlabwgpi 60891
aivv 701191
ddjzqiil 632082
u 324948
ynfrcordux 56751
mbnkt 281864
n 63655
q 750715
znkjteskj 924365
n 636585
l 919202
wuif 7394
dpzclo 87306
jlwmdyeug 495482
esks 954228
kiwlvkra 177133
ubspok 919042
jcaddq 704043
uydwjrzkze 237712
npomvmlils 616215
iyrggpv 848978
ksfduq 286381
ss 68791
xkmoipud 172179
lkyucqqcd 82645
ewytsvof 737882
izge 237885
i 786115
dwemoz 40137
fvke 632966
gokioivuj 59989
tgwextbvjj 639366
iwq 510445
lmmjdlop 192154
quo 791748
xkhfa 231026
ragj 708599
ntpk 166867
abidbl 174677
kjvzrbb 862603
qrjmhr 13547
z 473018
uud 868451
avyakuumlt 355036
grqm 392353
hgvms 400599
xzse 812885
wfctxtfse 630211
g 884596
rcw 626689
dkuyumptvz 870100
vbbujrakp 589244
mhuaqvo 909251
hk 451901
ivmsn 64680
wnptb 268446
484
dgnfipa
ig
vzcea
sd
d
jzxpq
msmrwbneq
r
sxwemvmz
ayjwywm
zfheran
ylwrfmdc
fcgr
xphgcwjnmc
zwtwwhqnpi
mxwaoowtko
yszb
pcrpflmv
fxnimmx
osrpyepghl
sej
wurutnj
kqcrikv
bnhhcjm
crgqga
elidrsh
rpblp
wieafqhenv
pcf
yvxnnwecn
wend
abawcoy
qcts
btepgmerd
njvcf
o
pbqz
ugnuxenmda
emax
oisod
zjqdskvyyb
yinlszhm
rpgs
rkhfnrqu
nvdwvi
aq
vmg
skffekfggm
y
zmvmbgxpz
cyyttrs
wdodinv
rubi
qbptr
bf
nie
yyiwuacl
qwsuxohu
mkcplhdg
ynmhzb
ancno
ix
djoo
fkyxem
dk
ounsq
qubxfa
ojb
nzncnnuor
hpf
lkgvcd
moxdtkqux
awiswtgvj
pxvs
qc
tznlfwd
fdy
lxbf
zyuzb
om
jipx
jgqk
zlie
hlpqd
fkwn
ovklgsyi
kctxejof
ivscx
xnjdugwtyl
omhwjc
u
m
qdgdylsfa
rwdssk
dktc
wbl
nrhhyo
xrw
xvyqwjuh
odjq
y
vnvlgnlsjq
z
hds
tahnnn
ewyk
ntoqalfk
boltxtaa
rx
ipkrpcq
pkqrhr
vpw
drenrxi
jv
oodaifpg
qtlsk
guashqxs
tjj
fptmqf
yu
myhro
hy
lesofh
wlf
olbrwl
kbsu
kyjocrqjj
cikppbu
s
g
rvqbmwiyuw
zwgfbjd
abrjqnckt
nrtj
ytlkzhejff
op
juseow
ddeuknztec
ahiwx
azawdoh
synqt
bekdhvjn
desgn
bxxuxfzzuv
ncmldshdwx
pon
cftpz
keldqcwt
mlyjwid
aanmpmnncc
xs
h
sjcdh
mtcvllfb
t
xupwfozchg
cvuvesnqui
qcymfzcd
ubxmb
eklur
nmvtbg
xmckymi
gfbvl
rpfz
vmo
yih
iiuiuwyj
s
ela
vzo
ygus
ejbifeurlv
fcojs
umots
jxxoory
e
itlwthvet
m
tdxmjdkbb
jcnf
atcz
fizgw
kfiaqvslzg
nme
olsz
nqorvsjxt
e
bpekg
sojwbfokl
cbwvk
wfxqjnviny
wj
iajys
hb
malq
sthgsumlac
tlokhrmgr
ohgpeqhedu
tnaalj
wweaaix
ig
btlfpozrp
tdqyrm
sznuq
hvxdqdmwj
ugcpnyb
rrptpg
jhmbn
qhqfe
bduy
bm
vkuixj
c
kt
pbsmwhkt
gnnbx
zjqy
rloehgn
varg
uk
rvrmubf
x
ghrcftp
bhsxx
qq
yqoqbam
xl
xzockedz
bajdx
wnvrvz
bamw
aa
xakligbzf
sboca
wepu
wgnjazug
xiqawfgdrc
fyecrjpmaw
gfrghk
ifh
blsvrrwokl
v
dmml
yb
jvxzucgov
ghrilg
ftkuuran
qwzugz
sriiapp
eeipxfb
noaxjcvx
wrbqaxp
torytgnyi
rxktx
bk
acnszemv
pzr
o
uqpzeks
htqhr
pqny
sfs
cdlgxwg
psxgdbhbv
jjp
veo
utf
ccetz
ojiqmuf
zpo
ff
gumcrc
nxoshnuiny
ww
ljgvnlxn
qwpyumcip
d
yxjcpkmy
do
tgttbbx
orjbrmo
dfexxivf
cfcuszasux
rwgb
urw
vlk
ohvfhlak
h
ewad
olunj
kaebxmxp
lqxylxa
milzx
rksvmqstc
l
actm
q
iqaebi
cqsy
pnbgiuzcjy
wvfudy
avruf
amdq
dzbywdo
cbyjlf
uovmltlnhp
bolgacdkk
gvygui
myzgr
zddkqiugw
itmnsnzra
uj
bqxv
a
o
ntl
p
tijajfue
rg
egnc
rglnlj
y
zfjwuoiow
kvk
dgfhk
sowge
hcahk
n
efg
lpbj
edktao
whzdirbviq
imhahf
wnwxplwhpf
dtxfu
cpttdz
fn
k
orrbuen
vaorbbgdyi
ebzhefex
etagkdmxhl
bwnrkcjgv
itz
rprzn
m
ilrtcfcfmn
qxhcxvrj
j
zegmupwy
wnoiwvgpl
hs
xqdshmxkga
ofvmgtl
cu
sjsw
gjgb
traxqshn
dtzbxrwra
una
mj
rafo
ras
wetyfxfxlb
ls
oevox
qlwo
dmcwpyski
yl
akkbkw
n
ibibtjvaa
eozfinfoz
rjtke
tv
dvqjs
twqispxymk
bodhsvltnk
jof
zwsouqlrd
gagdeivc
lfpykzr
wgrqvsdhm
hhfzxuqqcg
gpal
lcwlac
qzm
x
cv
dlqaq
arkt
imbzpjo
kzzxoqara
nswnxduudh
gawb
ameu
xdtnciv
thtvr
jg
hlerkepn
j
duxhhfy
mbx
schf
ugoqzj
q
pg
gq
j
ppyyyywq
xe
ft
r
pgod
jwjcgi
dugtmvfl
zrzf
tpdxeu
ipuubnu
omkuncsd
yjwncsqlrt
mvdzmlpev
wa
kyompitxp
wcood
wclegwunwo
krenvp
pk
rfy
fly
uvftve
hnuotvcf
oagiqsukqi
ls
hfzhd
c
a
dngh
ulmzytg
affweivzj
dvjwmb
jkvnvltsj
hlb
qrwimupyz
o
tqdppkn
x
zyinxqzq
bwq
asgjqozk
sz
caeevwi
gta
hozazut
irylhig
m
jsujibwfkl
ceqfmcmn
hopxnxqmtv
gud
ovfrfgh
cpuji
lhfluifnqj
gaxhzgq
tgor
xhdcn
qawdp
l
lnhqhdwx
jqaalgx
fp
ey
abjj
uz
r
pzetlmg
xfnqgwjo
rpbyqzkfp
mnou
q
rlkv
tds
s
stlwrdxh
